Version 4
SHEET 1 880 680
WIRE 176 160 -16 160
WIRE 400 176 240 176
WIRE 176 192 0 192
WIRE 0 240 0 192
FLAG -96 160 0
FLAG 0 320 0
FLAG 208 288 0
FLAG 208 64 0
FLAG 400 256 0
SYMBOL OpAmps\\LT1001 208 112 R0
WINDOW 0 42 27 Left 1
WINDOW 3 37 102 Left 2
SYMATTR InstName U1
SYMBOL voltage -112 160 R270
WINDOW 0 32 56 VTop 2
WINDOW 3 53 -56 VBottom 1
WINDOW 123 0 0 Left 0
WINDOW 39 0 0 Left 0
SYMATTR InstName Vi
SYMATTR Value SINE(0 12 50)
SYMBOL voltage 208 160 R180
WINDOW 0 24 96 Left 1
WINDOW 3 -16 58 Left 2
WINDOW 123 0 0 Left 0
WINDOW 39 0 0 Left 0
SYMATTR InstName V+
SYMATTR Value 15
SYMBOL voltage 208 304 R180
WINDOW 0 35 48 Left 1
WINDOW 3 -16 60 Left 2
WINDOW 123 0 0 Left 0
WINDOW 39 0 0 Left 0
SYMATTR InstName V-
SYMATTR Value 15
SYMBOL voltage 0 224 R0
WINDOW 0 40 56 Left 2
WINDOW 3 -4 59 Left 2
WINDOW 123 0 0 Left 0
WINDOW 39 0 0 Left 0
SYMATTR InstName Vref
SYMATTR Value 6
SYMBOL res 384 160 R0
WINDOW 0 34 15 Left 2
SYMATTR InstName R1
SYMATTR Value 1k
TEXT -256 344 Left 1 !.tran 100ms
