Version 4
SHEET 1 1348 680
WIRE 688 0 688 -48
WIRE 112 96 -208 96
WIRE 512 96 512 -32
WIRE 512 96 336 96
WIRE 112 160 -304 160
WIRE 112 224 -160 224
WIRE 576 224 336 224
WIRE 688 224 688 80
WIRE 688 224 576 224
WIRE 816 224 688 224
WIRE 1120 224 880 224
WIRE 688 256 688 224
WIRE 112 288 -128 288
WIRE 448 288 336 288
WIRE -128 304 -128 288
WIRE 448 304 448 288
WIRE 688 384 688 336
WIRE -304 432 -304 160
WIRE 576 432 576 224
WIRE 576 432 -304 432
FLAG 688 -128 0
FLAG 512 -112 0
FLAG 1120 304 0
FLAG -128 384 0
FLAG -208 96 0
FLAG 448 368 0
FLAG 688 384 0
FLAG -160 224 Vout
IOPIN -160 224 Out
SYMBOL Misc\\NE555 224 192 R0
SYMATTR InstName U1
SYMBOL cap 432 304 R0
SYMATTR InstName C1
SYMATTR Value 0.01µ
SYMBOL cap 816 240 R270
WINDOW 0 32 32 VTop 2
WINDOW 3 0 32 VBottom 2
SYMATTR InstName C2
SYMATTR Value 0.01µ
SYMBOL voltage 1120 208 R0
WINDOW 123 0 0 Left 0
WINDOW 39 0 0 Left 0
SYMATTR InstName V1
SYMATTR Value SINE(2.5 2 1000)
SYMBOL voltage -128 288 R0
WINDOW 123 0 0 Left 0
WINDOW 39 0 0 Left 0
SYMATTR InstName V2
SYMATTR Value 5
SYMBOL voltage 512 -16 R180
WINDOW 0 24 96 Left 2
WINDOW 3 24 16 Left 2
WINDOW 123 0 0 Left 0
WINDOW 39 0 0 Left 0
SYMATTR InstName V3
SYMATTR Value 5
SYMBOL voltage 688 -32 R180
WINDOW 0 24 96 Left 2
WINDOW 3 24 16 Left 2
WINDOW 123 0 0 Left 0
WINDOW 39 0 0 Left 0
SYMATTR InstName V4
SYMATTR Value 5
SYMBOL res 672 -16 R0
SYMATTR InstName R1
SYMATTR Value 100k
SYMBOL res 672 240 R0
SYMATTR InstName R2
SYMATTR Value 100k
TEXT -306 438 Left 2 !.tran 0 4m 0 0.01
